A
1000 Generated by Infinite Flight Airport Editing (World Parser)/AB

1     2610 1 1 SBTL TELEMACO BORBA
100   29.87   1   0 0.25 0 1 0 02  -24.32589400 -050.65191700    0.00    0.00 2  0 0 0 20  -24.30965300 -050.65126700    0.00    0.00 2  0 0 0
110   1 0.30   2.09 Default taxiway for RWY 02
111 -24.32589882 -050.65177206   3 102 
111 -24.32592339 -050.65103258   3 102 
111 -24.30968239 -050.65038261   3 102 
111 -24.30965782 -050.65112200 
112 -24.30992646 -050.65113275 -24.30979222 -050.65112491   3 102 
111 -24.30979810 -050.65094804   3 102 
112 -24.30980594 -050.65071223 -24.30981182 -050.65053537   3 102 
111 -24.30994614 -050.65054074   3 102 
111 -24.31773084 -050.65085230   3 102 
111 -24.31771116 -050.65144434 
111 -24.31784548 -050.65144972   3 102 
111 -24.31786516 -050.65085768   3 102 
112 -24.32564987 -050.65116923 -24.32578418 -050.65117460   3 102 
111 -24.32577830 -050.65135149   3 102 
112 -24.32577046 -050.65158733 -24.32576458 -050.65176422   3 102 
113 -24.32563019 -050.65176131 
120 Default hold RWY 02 (near)
111 -24.32590870 -050.65147479   4 
115 -24.32577438 -050.65146941 
120 Default hold RWY 02 (centre)
111 -24.31785536 -050.65115247   4 
115 -24.31772104 -050.65114709 
120 Default hold RWY 02 (far)
111 -24.30980202 -050.65083014   4 
115 -24.30966770 -050.65082477 
18  -24.31774040 -050.65262377 1 BCN
19  -24.32614793 -050.65236996 1 WS
19  -24.30939907 -050.65081410 1 WS
54 13160 RDO


130 Airport Boundary
111 -024.32592392 -050.65103149
111 -024.32589912 -050.65177155
111 -024.32589340 -050.65191650
111 -024.30965233 -050.65126801
113 -024.30968285 -050.65038300
99
